/*--------------------------------*- C++ -*----------------------------------*\
| =========                 |                                                 |
| \\      /  F ield         | OpenFOAM: The Open Source CFD Toolbox           |
|  \\    /   O peration     | Version:  v2006                                 |
|   \\  /    A nd           | Website:  www.openfoam.com                      |
|    \\/     M anipulation  |                                                 |
\*---------------------------------------------------------------------------*/
FoamFile
{
    version     2.0;
    format      ascii;
    class       dictionary;
    object      fvSchemes;
}
// * * * * * * * * * * * * * * * * * * * * * * * * * * * * * * * * * * * * * //

ddtSchemes
{
    default         Euler;
}

gradSchemes
{
    default         none;
    limited         cellLimited Gauss linear 1;
    grad(U)         $limited;
    grad(p)         $limited;
    grad(e)         $limited;
    grad(nuTilda)   $limited;
    grad(k)         $limited;
    grad(omega)     $limited;
    grad(epsilon)   $limited;
    grad(K)         $limited;
}

divSchemes
{
    default         none;

    div(phi,U)      Gauss limitedLinearV 1.0;

    div(phi,k)       Gauss limitedLinear 1.0;
    div(phi,omega)   Gauss limitedLinear 1.0;
    div(phi,nuTilda) bounded Gauss limitedLinear 1.0;

    div(phi,e)      Gauss limitedLinear 1.0;
    div(phi,K)      Gauss limitedLinear 1.0;
    div(phi,Ekp)    Gauss limitedLinear 1.0;

    div(phiv,p)     Gauss limitedLinear 1.0;
    div(phid,p)     Gauss limitedLinear 1.0;

    div(((rho*nuEff)*dev2(T(grad(U)))))    Gauss linear;
    div((nuEff*dev2(T(grad(U))))) Gauss linear;
    div(((rho*(thermo:mu|rho))*dev2(T(grad(U))))) Gauss linear;
}

laplacianSchemes
{
    default         Gauss linear corrected;
}

interpolationSchemes
{
    default         linear;
}

snGradSchemes
{
    default         corrected;
}

wallDist
{
    method meshWave;
}

// ************************************************************************* //
