/*--------------------------------*- C++ -*----------------------------------*\
| =========                 |                                                 |
| \\      /  F ield         | OpenFOAM: The Open Source CFD Toolbox           |
|  \\    /   O peration     | Version:  v2006                                 |
|   \\  /    A nd           | Website:  www.openfoam.com                      |
|    \\/     M anipulation  |                                                 |
\*---------------------------------------------------------------------------*/
FoamFile
{
    version     2.0;
    format      ascii;
    class       volScalarField;
    object      nut;
}
// * * * * * * * * * * * * * * * * * * * * * * * * * * * * * * * * * * * * * //

dimensions      [0 2 -1 0 0 0 0];

internalField   uniform 1.5342e-5;

boundaryField
{
    inlet
    {
        type            calculated;
        value           uniform 1.5342e-5;
    }

    outlet
    {
        type            calculated;
        value           uniform 1.5342e-5;
    }

    airfoil
    {
	    type            nutUSpaldingWallFunction;
        value           $internalField;

    }

    front
    {
        type            empty;
    }

    back
    {
        type            empty;
    }
    
    processor
    {
        type  processor;
        value $internalField;
    }
}

// ************************************************************************* //
