/*--------------------------------*- C++ -*----------------------------------*\
| =========                 |                                                 |
| \\      /  F ield         | OpenFOAM: The Open Source CFD Toolbox           |
|  \\    /   O peration     | Version:  v2006                                 |
|   \\  /    A nd           | Website:  www.openfoam.com                      |
|    \\/     M anipulation  |                                                 |
\*---------------------------------------------------------------------------*/
FoamFile
{
    version     2.0;
    format      ascii;
    class       volScalarField;
    object      k;
}
// * * * * * * * * * * * * * * * * * * * * * * * * * * * * * * * * * * * * * //

kInlet          0.00001;

dimensions      [0 2 -2 0 0 0 0];

internalField   uniform $kInlet;

boundaryField
{
    inlet
    {
        type            inletOutlet;
        inletValue      uniform $kInlet;
        value           uniform $kInlet;
    }

    outlet
    {
        type            inletOutlet;
        inletValue      uniform $kInlet;
        value           uniform $kInlet;
    }

    airfoil
    {
        type            fixedValue;
        value           uniform 0;
    }

    front
    {
        type            cyclic;
    }

    back
    {
        type            cyclic;
    }
    
    processor
    {
        type  processor;
        value $internalField;
    }

    processorCyclic
    {
        type  processorCyclic;
        value $internalField;
    }
}

// ************************************************************************* //
